Circuit: * C:\Users\antoi\Desktop\EC\Benson Loadbox\Spice\Loadbox.asc


Date: Sun Feb 26 20:42:06 2023
Total elapsed time: 0.056 seconds.

tnom = 27
temp = 27
method = trap
totiter = 0
traniter = 0
tranpoints = 0
accept = 0
rejected = 0
matrix size = 9
fillins = 3
solver = Normal

