Circuit: * C:\Users\antoi\Desktop\EC\Benson Loadbox\Spice\Speaker_Sim.asc


Date: Fri Feb 17 23:22:17 2023
Total elapsed time: 0.022 seconds.

tnom = 27
temp = 27
method = trap
totiter = 0
traniter = 0
tranpoints = 0
accept = 0
rejected = 0
matrix size = 3
fillins = 0
solver = Normal

